5wyq_ligand.pdb
 OpenBabel01192513493D

 51 53  0  0  1  0  0  0  0  0999 V2000
  -28.4310   13.6360  -31.8110 N   0  0  0  0  0  0  0  0  0  0  0  0
  -29.6760   12.8970  -31.5760 C   0  0  2  0  0  0  0  0  0  0  0  0
  -30.8280   13.5190  -32.4220 C   0  0  0  0  0  0  0  0  0  0  0  0
  -30.6390   13.5350  -33.6590 O   0  0  0  0  0  0  0  0  0  0  0  0
  -31.8580   13.9660  -31.8470 O   0  0  0  0  0  0  0  0  0  0  0  0
  -29.9780   12.8000  -30.0710 C   0  0  0  0  0  0  0  0  0  0  0  0
  -30.8880   11.6020  -29.8440 C   0  0  0  0  0  0  0  0  0  0  0  0
  -30.9930   11.1670  -28.0690 S   0  0  2  0  0  0  0  0  0  0  0  0
  -29.6050   10.0910  -27.7360 C   0  0  0  0  0  0  0  0  0  0  0  0
  -32.5390   10.1860  -27.8530 C   0  0  0  0  0  0  0  0  0  0  0  0
  -33.7620   11.0520  -27.4960 C   0  0  1  0  0  0  0  0  0  0  0  0
  -33.5140   11.8310  -26.3100 O   0  0  0  0  0  0  0  0  0  0  0  0
  -34.1070   12.1060  -28.5230 C   0  0  1  0  0  0  0  0  0  0  0  0
  -34.8210   11.5040  -29.6180 O   0  0  0  0  0  0  0  0  0  0  0  0
  -35.0220   12.9860  -27.6880 C   0  0  1  0  0  0  0  0  0  0  0  0
  -36.4060   12.4130  -27.6590 O   0  0  0  0  0  0  0  0  0  0  0  0
  -34.4260   12.9300  -26.2920 C   0  0  2  0  0  0  0  0  0  0  0  0
  -33.6320   14.1250  -25.8740 N   0  0  0  0  0  0  0  0  0  0  0  0
  -32.3020   14.0680  -25.6900 C   0  0  0  0  0  0  0  0  0  0  0  0
  -31.8740   15.2640  -25.2690 N   0  0  0  0  0  0  0  0  0  0  0  0
  -32.9450   16.0680  -25.1550 C   0  0  0  0  0  0  0  0  0  0  0  0
  -33.0660   17.3590  -24.8350 C   0  0  0  0  0  0  0  0  0  0  0  0
  -31.9550   18.0040  -24.4580 N   0  0  0  0  0  0  0  0  0  0  0  0
  -34.2480   17.9930  -24.8870 N   0  0  0  0  0  0  0  0  0  0  0  0
  -35.4010   17.2900  -25.2000 C   0  0  0  0  0  0  0  0  0  0  0  0
  -35.2410   15.9460  -25.5390 N   0  0  0  0  0  0  0  0  0  0  0  0
  -34.0290   15.3690  -25.5400 C   0  0  0  0  0  0  0  0  0  0  0  0
  -28.2506   13.6881  -32.8136 H   0  0  0  0  0  0  0  0  0  0  0  0
  -27.6581   13.1550  -31.3510 H   0  0  0  0  0  0  0  0  0  0  0  0
  -29.5717   11.8852  -31.9080 H   0  0  0  0  0  0  0  0  0  0  0  0
  -31.9308   13.9203  -30.9139 H   0  0  0  0  0  0  0  0  0  0  0  0
  -30.4664   13.6932  -29.7414 H   0  0  0  0  0  0  0  0  0  0  0  0
  -29.0690   12.6830  -29.5188 H   0  0  0  0  0  0  0  0  0  0  0  0
  -30.5012   10.7639  -30.3852 H   0  0  0  0  0  0  0  0  0  0  0  0
  -31.8694   11.8560  -30.1863 H   0  0  0  0  0  0  0  0  0  0  0  0
  -30.9873   12.2585  -27.2578 H   0  0  0  0  0  0  0  0  0  0  0  0
  -29.6434    9.2461  -28.3915 H   0  0  0  0  0  0  0  0  0  0  0  0
  -29.6484    9.7568  -26.7205 H   0  0  0  0  0  0  0  0  0  0  0  0
  -28.6924   10.6260  -27.8967 H   0  0  0  0  0  0  0  0  0  0  0  0
  -32.3843    9.4758  -27.0678 H   0  0  0  0  0  0  0  0  0  0  0  0
  -32.7478    9.7111  -28.7889 H   0  0  0  0  0  0  0  0  0  0  0  0
  -34.5479   10.3320  -27.4024 H   0  0  0  0  0  0  0  0  0  0  0  0
  -33.2789   12.6166  -28.9685 H   0  0  0  0  0  0  0  0  0  0  0  0
  -35.5902   11.0218  -29.2763 H   0  0  0  0  0  0  0  0  0  0  0  0
  -35.0925   13.9809  -28.0755 H   0  0  0  0  0  0  0  0  0  0  0  0
  -36.3741   11.5082  -27.3110 H   0  0  0  0  0  0  0  0  0  0  0  0
  -35.2441   12.8594  -25.6060 H   0  0  0  0  0  0  0  0  0  0  0  0
  -31.7085   13.2385  -25.8474 H   0  0  0  0  0  0  0  0  0  0  0  0
  -31.0953   17.5255  -24.4248 H   0  0  0  0  0  0  0  0  0  0  0  0
  -31.9978   18.9568  -24.2140 H   0  0  0  0  0  0  0  0  0  0  0  0
  -36.3306   17.7380  -25.1831 H   0  0  0  0  0  0  0  0  0  0  0  0
  1  2  1  0  0  0  0
  1 28  1  0  0  0  0
  1 29  1  0  0  0  0
  2  6  1  0  0  0  0
  2 30  1  6  0  0  0
  3  5  1  0  0  0  0
  3  2  1  0  0  0  0
  4  3  2  0  0  0  0
  5 31  1  0  0  0  0
  6  7  1  0  0  0  0
  6 32  1  0  0  0  0
  6 33  1  0  0  0  0
  7  8  1  0  0  0  0
  7 34  1  0  0  0  0
  7 35  1  0  0  0  0
  8 10  1  0  0  0  0
  8  9  1  0  0  0  0
  8 36  1  1  0  0  0
  9 37  1  0  0  0  0
  9 38  1  0  0  0  0
  9 39  1  0  0  0  0
 10 11  1  0  0  0  0
 10 40  1  0  0  0  0
 10 41  1  0  0  0  0
 11 12  1  0  0  0  0
 11 42  1  1  0  0  0
 12 17  1  0  0  0  0
 13 15  1  0  0  0  0
 13 11  1  0  0  0  0
 13 43  1  6  0  0  0
 14 13  1  0  0  0  0
 14 44  1  0  0  0  0
 15 16  1  0  0  0  0
 15 17  1  0  0  0  0
 15 45  1  6  0  0  0
 16 46  1  0  0  0  0
 17 18  1  0  0  0  0
 17 47  1  1  0  0  0
 18 19  1  0  0  0  0
 18 27  1  0  0  0  0
 19 20  2  0  0  0  0
 19 48  1  0  0  0  0
 20 21  1  0  0  0  0
 21 22  1  0  0  0  0
 22 23  1  0  0  0  0
 23 49  1  0  0  0  0
 23 50  1  0  0  0  0
 24 22  2  0  0  0  0
 25 24  1  0  0  0  0
 25 51  1  0  0  0  0
 26 25  2  0  0  0  0
 27 26  1  0  0  0  0
 27 21  2  0  0  0  0
M  END
>  <REMARK>
 Selection 'chain A and resname SAM'

$$$$
